<?xml version="1.0" encoding="UTF-8"?>

<!-- generated on 2025-10-29 17:43:08 by Eclipse SUMO sumo Version 1.24.0
-->

<sumoConfiguration xmlns:xsi="http://www.w3.org/2001/XMLSchema-instance" xsi:noNamespaceSchemaLocation="http://sumo.dlr.de/xsd/sumoConfiguration.xsd">

    <input>
        <net-file value="../../../Huawei Developer Competition/MARL/MARL/bsd.net.xml"/>
    </input>

</sumoConfiguration>
